144
frame 0
      In     2.89800   10.64300    9.25800
      In     4.84600   12.59000    3.08600
      In     4.84600   10.64300    0.00000
      In     2.89800   12.59000    6.17200
      In    10.64300    2.89800    3.08600
      In    12.59000    4.84600    9.25800
      In    12.59000    2.89800    6.17200
      In    10.64300    4.84600    0.00000
       H     4.73200   11.61600    7.71500
       O     3.93700   11.61600    7.71500
       H     3.87200   12.47600   10.80100
       O     3.87200   11.68200   10.80100
       H     3.01300   11.61600    1.54300
       O     3.80700   11.61600    1.54300
       H     3.87200   10.75700    4.62900
       O     3.87200   11.55100    4.62900
       H    12.47600    3.87200    1.54300
       O    11.68200    3.87200    1.54300
       H    11.61600    4.73200    4.62900
       O    11.61600    3.93700    4.62900
       H    10.75700    3.87200    7.71500
       O    11.55100    3.87200    7.71500
       H    11.61600    3.01300   10.80100
       O    11.61600    3.80700   10.80100
      C1     7.74400    7.74400    6.92200
      C1     7.74400    7.74400    5.42100
      C2     6.67400    8.30500    7.63200
      C2     7.18400    8.81500    4.71200
      C2     8.81500    7.18400    7.63200
      C2     8.30500    6.67400    4.71200
      C3     6.69900    8.34700    9.02600
      C3     7.14200    8.79000    3.31800
      C3     8.79000    7.14200    9.02600
      C3     8.34700    6.69900    3.31800
      C4     7.74400    7.74400    9.72700
      C4     7.74400    7.74400    2.61700
      C5     5.61800    9.06500    9.76600
      C5     6.42300    9.87100    2.57700
      C5     9.87100    6.42300    9.76600
      C5     9.06500    5.61800    2.57700
      H2     5.94500    8.65200    7.17200
      H2     6.83700    9.54400    5.17200
      H2     9.54400    6.83700    7.17200
      H2     8.65200    5.94500    5.17200
      H4     7.74400    7.74400   10.65600
      H4     7.74400    7.74400    1.68700
      O1     4.52400    9.19900    9.18600
      O1     6.29000   10.96400    3.15800
      O1    10.96400    6.29000    9.18600
      O1     9.19900    4.52400    3.15800
      O2     9.56700    6.02000   10.92600
      O2     9.46800    5.92100    1.41800
      O2     5.92100    9.46800   10.92600
      O2     6.02000    9.56700    1.41800
      C1     0.00000    0.00000    0.75100
      C1     0.00000    0.00000   11.59300
      C2     1.07000   14.92800    1.46000
      C2     0.56100   14.41800   10.88400
      C2    14.41800    0.56100    1.46000
      C2    14.92800    1.07000   10.88400
      C3     1.04500   14.88600    2.85400
      C3     0.60300   14.44300    9.49000
      C3    14.44300    0.60300    2.85400
      C3    14.88600    1.04500    9.49000
      C4     0.00000    0.00000    3.55500
      C4     0.00000    0.00000    8.78900
      C5     2.12700   14.16700    3.59500
      C5     1.32100   13.36200    8.74900
      C5    13.36200    1.32100    3.59500
      C5    14.16700    2.12700    8.74900
      H2     1.80000   14.58100    1.00000
      H2     0.90800   13.68900   11.34400
      H2    13.68900    0.90800    1.00000
      H2    14.58100    1.80000   11.34400
      H4     0.00000    0.00000    4.48500
      H4     0.00000    0.00000    7.85900
      O1     3.22000   14.03400    3.01400
      O1     1.45400   12.26900    9.33000
      O1    12.26900    1.45400    3.01400
      O1    14.03400    3.22000    9.33000
      O2    13.66600    1.72400    4.75400
      O2    13.76500    1.82300    7.59000
      O2     1.82300   13.76500    4.75400
      O2     1.72400   13.66600    7.59000
      C1     0.00000    7.74400    3.83600
      C1     0.00000    7.74400    2.33500
      C2     0.56100    8.81500    4.54600
      C2     1.07000    8.30500    1.62600
      C2    14.92800    6.67400    4.54600
      C2    14.41800    7.18400    1.62600
      C3     0.60300    8.79000    5.94000
      C3     1.04500    8.34700    0.23200
      C3    14.88600    6.69900    5.94000
      C3    14.44300    7.14200    0.23200
      C4     0.00000    7.74400    6.64100
      C4     0.00000    7.74400   11.87500
      C5     1.32100    9.87100    6.68100
      C5     2.12700    9.06500   11.83500
      C5    14.16700    5.61800    6.68100
      C5    13.36200    6.42300   11.83500
      H2     0.90800    9.54400    4.08600
      H2     1.80000    8.65200    2.08600
      H2    14.58100    5.94500    4.08600
      H2    13.68900    6.83700    2.08600
      H4     0.00000    7.74400    7.57100
      H4     0.00000    7.74400   10.94500
      O1     1.45400   10.96400    6.10000
      O1     3.22000    9.19900    0.07200
      O1    14.03400    4.52400    6.10000
      O1    12.26900    6.29000    0.07200
      O2    13.76500    5.92100    7.84000
      O2    13.66600    6.02000   10.67600
      O2     1.72400    9.56700    7.84000
      O2     1.82300    9.46800   10.67600
      C1     7.74400    0.00000   10.00800
      C1     7.74400    0.00000    8.50700
      C2     7.18400   14.41800   10.71800
      C2     6.67400   14.92800    7.79800
      C2     8.30500    1.07000   10.71800
      C2     8.81500    0.56100    7.79800
      C3     7.14200   14.44300   12.11200
      C3     6.69900   14.88600    6.40400
      C3     8.34700    1.04500   12.11200
      C3     8.79000    0.60300    6.40400
      C4     7.74400    0.00000    0.46900
      C4     7.74400    0.00000    5.70300
      C5     6.42300   13.36200    0.50900
      C5     5.61800   14.16700    5.66300
      C5     9.06500    2.12700    0.50900
      C5     9.87100    1.32100    5.66300
      H2     6.83700   13.68900   10.25800
      H2     5.94500   14.58100    8.25800
      H2     8.65200    1.80000   10.25800
      H2     9.54400    0.90800    8.25800
      H4     7.74400    0.00000    1.39900
      H4     7.74400    0.00000    4.77300
      O1     6.29000   12.26900   12.27200
      O1     4.52400   14.03400    6.24400
      O1     9.19900    3.22000   12.27200
      O1    10.96400    1.45400    6.24400
      O2     9.46800    1.82300    1.66800
      O2     9.56700    1.72400    4.50400
      O2     6.02000   13.66600    1.66800
      O2     5.92100   13.76500    4.50400

